6
Coordinates from ORCA-job PCl5_ts_opt
  P   -0.00000000237377      0.02281143813865     -0.00000000312110
  Cl  -0.00000000084564      2.04681008760820     -0.00000000125025
  Cl  2.06534776826377     -0.41500541408754      0.00000000621292
  Cl  -2.06534776596032     -0.41500541255066      0.00000000513663
  Cl  0.00000000099612     -0.41500535064286      2.06534779476345
  Cl  -0.00000000008017     -0.41500534846580     -2.06534780174164
