6
Coordinates from ORCA-job AsCl5_ts_opt
  As  -0.00002186050981      0.35093113334052      0.00000001227688
  Cl  0.00035033000417      2.52929750265764     -0.00000047030959
  Cl  1.88631917668757     -0.73823063724997      0.00000027939734
  Cl  -1.88624128855958     -0.73857103304867      0.00000028799544
  Cl  -0.00020318313445      0.35128698810303      2.24512944153450
  Cl  -0.00020317448790      0.35128604619744     -2.24512955089457
