6
Coordinates from ORCA-job SbCl5_ts_opt
  Sb  0.00000002084443     -0.07274491911802      0.00000000098888
  Cl  -0.00000012680559      2.23995528128896     -0.00000003401155
  Cl  2.31177110859709     -0.56975270634727      0.00000003248736
  Cl  -2.31177108098340     -0.56975255616295      0.00000001877457
  Cl  0.00000004603013     -0.56975257141993      2.31177102650357
  Cl  0.00000003231734     -0.56975252824080     -2.31177104474283
