6
Coordinates from ORCA-job PF5_ts_opt
  P   0.00000000963418     -0.04391837257562     -0.00000000792698
  F   0.00000001607990      1.50345752856463      0.00000000100274
  F   1.55455657004874     -0.38398493462123      0.00000000710700
  F   -1.55455656016413     -0.38398496036866      0.00000000839905
  F   -0.00000001844538     -0.38398463006794      1.55455663902220
  F   -0.00000001715332     -0.38398463093117     -1.55455664760401
