6
Coordinates from ORCA-job PF5_opt
  P   -0.00000000132464      0.00024636824348     -0.00000000067087
  F   0.00000000975483      1.56615711710960      0.00000000376389
  F   1.35530062718560     -0.78403306508586      0.00000000036231
  F   -1.35530062404467     -0.78403307454656     -0.00000000089951
  F   -0.00000000525090      0.00083132912224      1.60166046489237
  F   -0.00000000632023      0.00083132515710     -1.60166046744819
