6
Coordinates from ORCA-job PF5_ts_scan
  P   0.00000000262487      0.00763646747853     -0.00000000171725
  F   -0.00000001797808      1.54163646777741     -0.00000000027639
  F   1.36182950311670     -0.76726216580052      0.00000000252749
  F   -1.36182950244693     -0.76726214476930      0.00000000172743
  F   0.00000000767790     -0.00737431350359      1.60400404767888
  F   0.00000000700554     -0.00737431118253     -1.60400404994015
