6
Coordinates from ORCA-job PF5_ts_scan
  P   0.00000000124013      0.00501272717908     -0.00000000149889
  F   -0.00000001906906      1.54856828141557      0.00000000073949
  F   1.36175972426001     -0.76989575267250      0.00000000092454
  F   -1.36175972536748     -0.76989573146871      0.00000000083761
  F   0.00000000950155     -0.00689476230123      1.60368362916803
  F   0.00000000943484     -0.00689476215221     -1.60368363017079
