6
Coordinates from ORCA-job PF5_ts_scan
  P   0.00000000227230     -0.00299044666093      0.00000000013275
  F   -0.00000000132256      1.57400955164898      0.00000000044146
  F   1.35551042022095     -0.78656438089100     -0.00000000107368
  F   -1.35551041508969     -0.78656437689034     -0.00000000039940
  F   -0.00000000332527      0.00105482696530      1.60101339184993
  F   -0.00000000275573      0.00105482582800     -1.60101339095105
