6
Coordinates from ORCA-job PF5_ts_scan
  P   0.00000000150242      0.00355632441058     -0.00000000126747
  F   -0.00000001300685      1.55188965561588     -0.00000000305541
  F   1.36105147236147     -0.77210415099888      0.00000000336582
  F   -1.36105147035277     -0.77210413501566      0.00000000169575
  F   0.00000000545338     -0.00561884971083      1.60306077572934
  F   0.00000000404235     -0.00561884430110     -1.60306077646803
