6
Coordinates from ORCA-job PF5_ts_scan
  P   0.00000000667990      0.00223693438216      0.00000000069014
  F   -0.00000000794677      1.56012582481685     -0.00000000203303
  F   1.35656039360042     -0.78026674700474     -0.00000000013233
  F   -1.35656038315236     -0.78026673214720     -0.00000000048014
  F   -0.00000000444218     -0.00091464086489      1.60219172570431
  F   -0.00000000473901     -0.00091463918218     -1.60219172374895
