6
Coordinates from ORCA-job PF5_ts_scan
  P   -0.00000000056127     -0.00189053433623     -0.00000000013506
  F   -0.00000000452574      1.57033168700487      0.00000000286358
  F   1.35576437222967     -0.78512622723160     -0.00000000157587
  F   -1.35576437311003     -0.78512622299181     -0.00000000066650
  F   0.00000000259942      0.00090565073029      1.60120178683460
  F   0.00000000336796      0.00090564682448     -1.60120178732075
