6
Coordinates from ORCA-job PF5_ts_scan
  P   0.00000000481426      0.00090023122058      0.00000000008364
  F   -0.00000000906787      1.56356689862407     -0.00000000061808
  F   1.35658864159381     -0.78153489783835      0.00000000028867
  F   -1.35658863335123     -0.78153488298725     -0.00000000065824
  F   -0.00000000159247     -0.00069867471697      1.60207092798467
  F   -0.00000000239651     -0.00069867430207     -1.60207092708066
