6
Coordinates from ORCA-job PF5_ts_scan
  P   0.00000000206000      0.00634347864386     -0.00000000125338
  F   -0.00000001861532      1.54512125591154      0.00000000034710
  F   1.36185480978389     -0.76850908869008      0.00000000169510
  F   -1.36185480942417     -0.76850906714582      0.00000000058722
  F   0.00000000856462     -0.00722328974742      1.60390270162549
  F   0.00000000763098     -0.00722328897208     -1.60390270300152
