6
Coordinates from ORCA-job PF5_ts_scan
  P   0.00000000145299      0.00245627961302     -0.00000000126553
  F   -0.00000001206982      1.55556739307890     -0.00000000056431
  F   1.36079902405629     -0.77354340312174      0.00000000061589
  F   -1.36079902183671     -0.77354338813553      0.00000000166091
  F   0.00000000375159     -0.00546844153687      1.60287726556278
  F   0.00000000464565     -0.00546843989778     -1.60287726600975
